/*--------------------------------*- C++ -*----------------------------------*\
| =========                 |                                                 |
| \\      /  F ield         | OpenFOAM: The Open Source CFD Toolbox           |
|  \\    /   O peration     | Version:  v2106                                 |
|   \\  /    A nd           | Website:  www.openfoam.com                      |
|    \\/     M anipulation  |                                                 |
\*---------------------------------------------------------------------------*/
FoamFile
{
    version     2.0;
    format      binary;
    arch        "LSB;label=32;scalar=64";
    class       polyBoundaryMesh;
    location    "constant/polyMesh";
    object      boundary;
}
// * * * * * * * * * * * * * * * * * * * * * * * * * * * * * * * * * * * * * //

6
(
    atmosphere
    {
        type            patch;
        nFaces          1250;
        startFace       243652;
    }
    outlet
    {
        type            patch;
        nFaces          98;
        startFace       244902;
    }
    inlet
    {
        type            patch;
        nFaces          98;
        startFace       245000;
    }
    bottom
    {
        type            wall;
        inGroups        1(wall);
        nFaces          1250;
        startFace       245098;
    }
    leftSide
    {
        type            symmetryPlane;
        inGroups        1(symmetryPlane);
        nFaces          122500;
        startFace       246348;
    }
    rightSide
    {
        type            symmetryPlane;
        inGroups        1(symmetryPlane);
        nFaces          122500;
        startFace       368848;
    }
)

// ************************************************************************* //
