/*--------------------------------*- C++ -*----------------------------------*\
| =========                 |                                                 |
| \\      /  F ield         | OpenFOAM: The Open Source CFD Toolbox           |
|  \\    /   O peration     | Version:  2312                                  |
|   \\  /    A nd           | Website:  www.openfoam.com                      |
|    \\/     M anipulation  |                                                 |
\*---------------------------------------------------------------------------*/
FoamFile
{
    version     2.0;
    format      ascii;
    arch        "LSB;label=32;scalar=64";
    class       polyBoundaryMesh;
    location    "constant/polyMesh";
    object      boundary;
}
// * * * * * * * * * * * * * * * * * * * * * * * * * * * * * * * * * * * * * //

7
(
    atmosphere
    {
        type            patch;
        nFaces          288;
        startFace       212888;
    }
    inlet
    {
        type            patch;
        nFaces          66;
        startFace       213176;
    }
    outlet
    {
        type            patch;
        nFaces          66;
        startFace       213242;
    }
    bottom
    {
        type            wall;
        inGroups        1(wall);
        nFaces          218;
        startFace       213308;
    }
    frontAndBack
    {
        type            empty;
        inGroups        1(empty);
        nFaces          211628;
        startFace       213526;
    }
    sides
    {
        type            overset;
        inGroups        1(overset);
        nFaces          330;
        startFace       425154;
    }
    object
    {
        type            wall;
        inGroups        1(wall);
        nFaces          482;
        startFace       425484;
    }
)

// ************************************************************************* //
