/*--------------------------------*- C++ -*----------------------------------*\
| =========                 |                                                 |
| \\      /  F ield         | OpenFOAM: The Open Source CFD Toolbox           |
|  \\    /   O peration     | Version:  v2106                                 |
|   \\  /    A nd           | Website:  www.openfoam.com                      |
|    \\/     M anipulation  |                                                 |
\*---------------------------------------------------------------------------*/
FoamFile
{
    version     2.0;
    format      ascii;
    class       dictionary;
    object      snappyHexMeshDict;
}
// * * * * * * * * * * * * * * * * * * * * * * * * * * * * * * * * * * * * * //

#include "../constant/objMeshing";

// Which of the steps to run
castellatedMesh true;
snap            true;
addLayers       false;

// Geometry. Definition of all surfaces. All surfaces are of class
// searchableSurface.
// Surfaces are used
// - to specify refinement for any mesh cell intersecting it
// - to specify refinement for any mesh cell inside/outside/near
// - to 'snap' the mesh boundary to the surface

geometry
{
    $objName
    {
        type    triSurfaceMesh;
    	scale	$objScale;
        name    object;
    }

    $baffleName
    {
        type        triSurfaceMesh;
 	    scale	    $objScale;
        name        baffle;
    };
}

// Settings for the castellatedMesh generation.
castellatedMeshControls
{
    maxLocalCells   200000000;
    maxGlobalCells  300000000;
    minRefinementCells 20;
    nCellsBetweenLevels 2;
    maxLoadUnbalance 0.1;
    allowFreeStandingZoneFaces true;
    resolveFeatureAngle     30;

    features
    (
        {
            file $objEMesh ;
            level 0 ;
        }
        {
            file $baffleEMesh ;
            level 0 ;
        }
    );


    refinementSurfaces
    {
        object
        {
            // Surface-wise min and max refinement level
            level (1 1);
            regions
            {
                object
                {
                    level (1 1);
                }
            }
        }
        baffle
        {
            level (1 1);
            regions
            {
                baffle
                {
                    level (1 1);
                }
            }

            faceType    baffle;
            faceZone    porousBaffle;
            patchInfo
            {
                type patch;
            }
        }
    }

    // Resolve sharp angles on fridges
    resolveFeatureAngle 30;

    refinementRegions
    {
    }

    locationInMesh $locationInMesh;

    allowFreeStandingZoneFaces true;
}

// Settings for the snapping.
snapControls
{
    tolerance       4;
    implicitFeatureSnap false;
    explicitFeatureSnap true;
    multiRegionFeatureSnap true;
    detectNearSurfacesSnap true;
    nSmoothPatch    3;
    nSolveIter      50;
    nRelaxIter      5;
    nFeatureSnapIter 10;
    nSmoothInternal 3;
    nFaceSplitInterval 5;
}

// Settings for the layer addition.
addLayersControls
{
    layers
    {
        "object"
        {
            nSurfaceLayers 4;
        }
        "baffle"
        {
            nSurfaceLayers 1;
        }
    }
    relativeSizes    true ;
    expansionRatio    1.1 ;
    firstLayerThickness   0.2 ;
    featureAngle    85;
    slipFeatureAngle 30;
    nGrow           0;
    nBufferCellsNoExtrude 0;
    minMedianAxisAngle 90;
    maxFaceThicknessRatio 0.2;
    maxThicknessToMedialRatio 0.3;
    minThickness    1e-06;
    nLayerIter      50;
    nRelaxIter      5;
    nSmoothSurfaceNormals 10;
    nSmoothNormals  3;
    nSmoothThickness 10;
    nRelaxedIter    10;
    nMedialAxisIter 10;
}

// Generic mesh quality settings. At any undoable phase these determine
// where to undo.
meshQualityControls
{
    minVol          1e-20;
    minTetQuality   1e-20;
    minArea         1e-20;
    minTwist        0.05;
    minDeterminant  1e-06;
    minFaceWeight   0.02;
    minVolRatio     0.01;
    minTriangleTwist -1;
    minFlatness     0.5;
    maxNonOrtho     70;
    maxBoundarySkewness 20;
    maxInternalSkewness 4;
    maxConcave      80;
    nSmoothScale    4;
    errorReduction  0.75;

    relaxed
    {
        minVol          1e-30;
        minTetQuality   1e-30;
        minArea         1e-30;
        minTwist        0.001;
        minDeterminant  1e-06;
        minFaceWeight   1e-06;
        minVolRatio     0.01;
        minTriangleTwist -1;
        minFlatness     0.5;
        maxNonOrtho     75;
        maxBoundarySkewness 20;
        maxInternalSkewness 8;
        maxConcave      80;
        nSmoothScale    4;
        errorReduction  0.75;
    }
}

mergeTolerance  1e-08;

debug           0;


// ************************************************************************* //
