/*--------------------------------*- C++ -*----------------------------------*\
| =========                 |                                                 |
| \\      /  F ield         | OpenFOAM: The Open Source CFD Toolbox           |
|  \\    /   O peration     | Version:  v2306                                 |
|   \\  /    A nd           | Website:  www.openfoam.com                      |
|    \\/     M anipulation  |                                                 |
\*---------------------------------------------------------------------------*/
FoamFile
{
    version     2.0;
    format      ascii;
    class       dictionary;
    object      createBafflesDict;
}
// * * * * * * * * * * * * * * * * * * * * * * * * * * * * * * * * * * * * * //


pointSync false;

patches
(
    {
        //- Master side patch
        name            baffle_in;
        patchInfo
        {
            type            cyclic;
            matchTolerance  0.0001;
            neighbourPatch  baffle_out;
            //transform       noOrdering;
            transform       coincidentFullMatch;
        }
        constructFrom patches;
        patches (baffle);
    }

    {
        //- Slave side patch
        name            baffle_out;
        patchInfo
        {
            type            cyclic;
            matchTolerance  0.0001;
            neighbourPatch  baffle_in;
            //transform       noOrdering;
            transform       coincidentFullMatch;
        }
        constructFrom patches;
        patches (baffle_slave);
    }
);


// ************************************************************************* //

